Version 4
SHEET 1 1608 1220
WIRE 256 -144 256 -160
WIRE -48 -112 -48 -144
WIRE 480 -112 480 -128
WIRE 576 -112 576 -128
WIRE 256 -48 256 -64
WIRE 256 -48 208 -48
WIRE 208 -32 208 -48
WIRE 256 -32 256 -48
WIRE -48 0 -48 -32
WIRE 480 0 480 -32
WIRE 576 0 576 -32
WIRE 256 64 256 48
WIRE 384 160 288 160
WIRE 544 160 464 160
WIRE 368 272 368 256
WIRE 128 288 48 288
WIRE 288 288 288 160
WIRE 288 288 208 288
WIRE 336 288 288 288
WIRE 544 304 544 160
WIRE 544 304 400 304
WIRE 592 304 544 304
WIRE 336 320 272 320
WIRE 368 352 368 336
WIRE 176 464 160 464
WIRE 272 464 272 320
WIRE 272 464 256 464
WIRE 288 464 272 464
WIRE 400 464 368 464
WIRE 496 464 480 464
WIRE 160 528 160 464
WIRE 496 528 496 464
FLAG 480 -128 Vcc
FLAG 368 256 Vcc
FLAG 368 352 Vee
FLAG 576 -128 Vee
FLAG 256 -160 +V
FLAG 160 528 +V
FLAG 256 64 -V
FLAG 496 528 -V
FLAG 592 304 Output
FLAG -48 -144 Input
FLAG 48 288 Input
FLAG -48 0 0
FLAG 480 0 0
FLAG 576 0 0
FLAG 208 -32 0
SYMBOL res 160 480 R270
WINDOW 0 32 56 VTop 2
WINDOW 3 -33 64 VTop 2
SYMATTR InstName R2
SYMATTR Value 7.5k
SYMBOL res 224 272 R90
WINDOW 0 0 56 VBottom 2
WINDOW 3 32 56 VTop 2
SYMATTR InstName R1
SYMATTR Value 470
SYMBOL res 480 144 R90
WINDOW 0 0 56 VBottom 2
WINDOW 3 32 56 VTop 2
SYMATTR InstName R5
SYMATTR Value 470
SYMBOL OpAmps\\opamp2 368 240 R0
WINDOW 0 34 32 Left 2
WINDOW 3 40 92 Left 2
SYMATTR InstName U1
SYMATTR Value LM318
SYMBOL voltage 480 -128 R0
WINDOW 123 0 0 Left 0
WINDOW 39 0 0 Left 0
SYMATTR InstName V1
SYMATTR Value 5
SYMBOL voltage 576 -128 R0
WINDOW 123 0 0 Left 0
WINDOW 39 0 0 Left 0
SYMATTR InstName V2
SYMATTR Value -5
SYMBOL voltage 256 -160 R0
WINDOW 123 0 0 Left 0
WINDOW 39 0 0 Left 0
SYMATTR InstName V3
SYMATTR Value 2
SYMBOL voltage 256 64 R180
WINDOW 0 -57 11 Left 2
WINDOW 3 -63 82 Left 2
WINDOW 123 0 0 Left 0
WINDOW 39 0 0 Left 0
SYMATTR InstName V4
SYMATTR Value -2
SYMBOL voltage -48 -128 R0
WINDOW 123 0 0 Left 0
WINDOW 39 0 0 Left 0
WINDOW 3 -184 169 Left 2
SYMATTR Value PULSE(0 2 0 1.035 1.035 1p 2.07s)
SYMATTR InstName V5
SYMBOL res 272 480 R270
WINDOW 0 32 56 VTop 2
WINDOW 3 -8 58 VBottom 2
SYMATTR InstName R3
SYMATTR Value 12k
SYMBOL OpAmps\\opamp 1488 320 R0
SYMATTR InstName U2
SYMBOL res 496 448 R90
WINDOW 0 0 56 VBottom 2
WINDOW 3 32 56 VTop 2
SYMATTR InstName R4
SYMATTR Value 470
TEXT 888 152 Left 2 !.lib "C:\\Program Files\\LTC\\LTspiceXVII\\lib\\sub\\LM318.sub"
TEXT -128 80 Left 2 !.tran 0 5 0 1m
TEXT 896 224 Left 2 !.lib "C:\\Program Files\\LTC\\LTspiceXVII\\lib\\sub\\opamp.sub"
